%mem=12000MB
%nprocshared=16
%mem=32Gb
%chk=imidazole.chk
#P HF/aug-cc-pvtz Opt=tight  Pop=(MK,Hirshfeld) iop(6/33=2) iop(6/42=6)
maxdisk=128GB
            
imidazole

0 1
C          1.10752        0.28675        0.00000
H          2.10058        0.67509        0.00000
C          0.63014       -0.97340        0.00000
H          1.18282       -1.88680        0.00000
N         -0.74036       -0.96211        0.00000
C         -1.07319        0.28014        0.00000
H         -2.07412        0.65641        0.00000
N         -0.00000        1.09251        0.00000
H         -0.01359        2.08153        0.00000


