    8
-229.07317959
    C   -1.45246592   -0.16275119    0.00007974
    O    0.56250082    1.20996275   -0.00000951
    O    0.74944302   -1.06803271   -0.00001313
    H   -1.72818664   -0.74793721   -0.87776851
    C    0.01812712    0.10706909   -0.00003852
    H   -1.72822363   -0.74746746    0.87789382
    H   -1.99321405    0.77791968   -0.00025686
    H    1.70654988   -0.87205051    0.00000001
