   10
-226.58115243
    C    1.15275492    0.32745665    0.00000000
    C    0.71236683   -0.96338899    0.00000000
    N   -0.68070570   -0.90791324    0.00000000
    C   -1.09068263    0.37184142    0.00000000
    N    0.01578148    1.13465232    0.00000000
    H    2.14593441    0.73187874    0.00000000
    H    1.25177067   -1.89051616    0.00000000
    H   -1.29349661   -1.70882641    0.00000000
    H   -2.10664631    0.71837541    0.00000000
    H    0.02001402    2.14318149    0.00000000
