%mem=12000MB
%nprocshared=16
%mem=32Gb
%chk=butanoate.chk
#P MP2/aug-cc-pvtz Opt=tight  density=MP2 Pop=(MK,Hirshfeld) iop(6/33=2) iop(6/42=6)
maxdisk=128GB
            
butanoate

-1 1
C          0.14692       -0.56976        0.00004
C         -1.29168        0.00921        0.00000
O         -1.39838        1.23574        0.00003
O         -2.18334       -0.84156       -0.00003
C          1.27723        0.45010       -0.00005
H          0.22953       -1.22197        0.86679
H          0.22953       -1.22211       -0.86660
H          1.17471        1.09734        0.86370
H          1.17471        1.09719       -0.86391
C          2.66380       -0.19256        0.00001
H          2.80747       -0.82075        0.87534
H          3.45272        0.55581       -0.00006
H          2.80747       -0.82091       -0.87521


