%mem=12000MB
%nprocshared=16
%mem=32Gb
%chk=1-methylimidazolium.chk
#P MP2/aug-cc-pvtz Opt=tight  density=MP2 Pop=(MK,Hirshfeld) iop(6/33=2) iop(6/42=6)
maxdisk=128GB
            
1-methylimidazolium

1 1
N          1.47847       -0.45161       -0.00000
C          1.31774        0.91388        0.00000
C          0.00000        1.13686        0.00000
N         -0.62441       -0.09468        0.00000
C          0.29430       -1.02186       -0.00000
C         -2.07302       -0.31156        0.00000
H          2.14322        1.58800        0.00000
H         -0.55080        2.04962        0.00000
H          0.11509       -2.07482       -0.00000
H         -2.49884        0.13477       -0.88455
H         -2.49884        0.13477        0.88455
H         -2.26681       -1.37168       -0.00000
H          2.34448       -0.94054       -0.00000


