%mem=12000MB
%nprocshared=16
%mem=32Gb
%chk=guanidinium.chk
#P HF/aug-cc-pvtz Opt=tight  Pop=(MK,Hirshfeld) iop(6/33=2) iop(6/42=6)
maxdisk=128GB
            
guanidinium

1 1
C          0.00000        0.00000        0.00000
N          0.00000        1.31860       -0.00000
N         -1.14194       -0.65930       -0.00000
N          1.14194       -0.65930       -0.00000
H         -1.16453       -1.65107       -0.00000
H         -2.01213       -0.18298        0.00000
H          0.84760        1.83404       -0.00000
H         -0.84760        1.83404       -0.00000
H          2.01213       -0.18298        0.00000
H          1.16453       -1.65107        0.00000


