10
imidazolium/imidazolium.log	Energy: -141366.4296192
C         -0.00000       -0.66777        0.97110
C         -0.00000        0.66777        0.97110
N         -0.00000        1.05991       -0.35192
C         -0.00000       -0.00000       -1.12002
N          0.00000       -1.05991       -0.35192
H         -0.00000       -1.36899        1.77359
H         -0.00000        1.36899        1.77359
H         -0.00000        1.99867       -0.68256
H         -0.00000       -0.00000       -2.18832
H          0.00000       -1.99867       -0.68256
