8
methylammonium/methylammonium.log	Energy:  -60001.9807426
N         -0.00000        0.00000       -0.70716
C          0.00000       -0.00000        0.79612
H         -0.00000        0.93845       -1.07406
H         -0.81272       -0.46922       -1.07406
H          0.81272       -0.46922       -1.07406
H         -0.88634        0.51173        1.13187
H          0.88634        0.51173        1.13187
H          0.00000       -1.02346        1.13187
