%mem=12000MB
%nprocshared=16
%mem=32Gb
%chk=ethylammonium.chk
#P HF/aug-cc-pvtz Opt=tight  Pop=(MK,Hirshfeld) iop(6/33=2) iop(6/42=6)
maxdisk=128GB
            
ethylammonium

1 1
N         -1.17155       -0.35108        0.00000
C         -0.00000        0.60968       -0.00000
H         -2.05186        0.13826        0.00000
H         -1.15209       -0.94693        0.81212
H         -1.15209       -0.94693       -0.81212
H         -0.11903        1.22455        0.87840
H         -0.11903        1.22455       -0.87840
C          1.30898       -0.15165       -0.00000
H          1.40920       -0.77193        0.88248
H          2.12267        0.55969       -0.00000
H          1.40920       -0.77193       -0.88248


