%mem=12000MB
%nprocshared=16
%mem=32Gb
%chk=propanoate.chk
#P HF/aug-cc-pvtz Opt=tight  Pop=(MK,Hirshfeld) iop(6/33=2) iop(6/42=6)
maxdisk=128GB
            
propanoate

-1 1
O         -0.78755        1.65805       -0.00000
O          1.23094        0.73195       -0.00000
C         -0.67599       -0.68579        0.00000
C          0.27034       -1.87896        0.00000
C         -0.00000        0.70953       -0.00000
H         -1.33153       -0.72276        0.86615
H         -1.33153       -0.72276       -0.86615
H          0.91531       -1.86188       -0.87027
H          0.91531       -1.86188        0.87027
H         -0.28073       -2.81935        0.00000


