%mem=12000MB
%nprocshared=8
%chk=water19.chk
#P HF/aug-cc-pvtz Opt=(Redundant, calcall, verytight) symm=(loose,follow) Pop=(MK,Hirshfeld,ReadRadii) iop(6/33=2) iop(6/42=6) Polar Freq
maxdisk=128GB
            
butanoate

-1 1
C         -1.11910        0.11520        0.00200
C          0.41140        0.18520       -0.00590
O          1.02850       -0.91480       -0.02110
O          0.87330        1.36310        0.00400
C         -1.70550       -1.29170       -0.01310
H         -1.47030        0.64780        0.89470
H         -1.48070        0.67110       -0.87210
H         -1.35180       -1.85430        0.85900
H         -1.36090       -1.83150       -0.90300
C         -3.22570       -1.26400       -0.00480
H         -3.60420       -0.76160        0.89110
H         -3.62330       -2.28360       -0.01590
H         -3.61330       -0.73880       -0.88360


